3
# CELL(abcABC):   18.89726    18.89726    18.89726    90.00000    90.00000    90.00000  Step:          40  Bead:       2 velocities{atomic_unit}  cell{atomic_unit}
       O -1.57474e-04 -6.43328e-04 -3.02692e-04
       H  4.75131e-04  1.92827e-03 -9.58797e-04
       H  1.42102e-03  2.09636e-03  2.30678e-03
