3
# CELL(abcABC):   18.89726    18.89726    18.89726    90.00000    90.00000    90.00000  Step:          40  Bead:       2 positions{angstrom}  cell{atomic_unit}
       O  4.97336e+00  4.92337e+00  4.96921e+00
       H  5.71284e+00  5.57553e+00  4.90940e+00
       H  5.01842e+00  4.53605e+00  4.05255e+00
