6
positions{angstrom}
O      -1.609897056834251     -0.103087275528143      0.000000000000000
H      -1.912995977596714      0.806433754963565      0.000000000000000
H      -0.647962494659909     -0.019318873282295     -0.000000000000000
O       1.301879273880096      0.048939209162592     -0.000000000000000
H       1.747649062946381     -0.340161166119908     -0.756895540576383
H       1.747649062946381     -0.340161166119908      0.756895540576383
